/*--------------------------------*- C++ -*----------------------------------*\
  =========                 |
  \\      /  F ield         | OpenFOAM: The Open Source CFD Toolbox
   \\    /   O peration     | Website:  https://openfoam.org
    \\  /    A nd           | Version:  6
     \\/     M anipulation  |
\*---------------------------------------------------------------------------*/
FoamFile
{
    version     2.0;
    format      ascii;
    
    root            "";
    case            "";
    instance        "";
    local           "";
    
    class       volScalarField;
    object      p;
}
// * * * * * * * * * * * * * * * * * * * * * * * * * * * * * * * * * * * * * //

dimensions      [1 -1 -2 0 0 0 0];

internalField   uniform 1e5;

boundaryField
{
    frontAndback
    {
        type            empty;
    }
    outlet
    {
        type            calculated;
        value           $internalField;
    }
    interface
    {
        type            calculated;
        value           $internalField;
    }
    inlet
    {
        type            calculated;
        value           $internalField;
    }
    wall
    {
        type            calculated;
        value           $internalField;
    }     
}


// ************************************************************************* //
