/*--------------------------------*- C++ -*----------------------------------*\
  =========                 |
  \\      /  F ield         | OpenFOAM: The Open Source CFD Toolbox
   \\    /   O peration     | Website:  https://openfoam.org
    \\  /    A nd           | Version:  6
     \\/     M anipulation  |
\*---------------------------------------------------------------------------*/
FoamFile
{
    version     2.0;
    format      ascii;
    class       volVectorField;
    location    "0";
    object      U;
}
// * * * * * * * * * * * * * * * * * * * * * * * * * * * * * * * * * * * * * //

dimensions      [0 1 -1 0 0 0 0];

internalField   uniform (0.00 0.0 0);


boundaryField
{
    frontAndback
    {
        type            empty;
    }  
    interface
    {
    	type            fixedValue;
		value 			uniform (0 0 0);
    }
    outlet
    {
        type            pressureInletOutletVelocity;
        value           $internalField;
    }
    inlet
    {
        type            flowRateInletVelocity;
        massFlowRate    0.0004;
        value           $internalField;
    }
    wall
    {
        type            pressureInletOutletVelocity;
        value           $internalField;
    }
}

// ************************************************************************* //
